63
Created by chemcoord http://chemcoord.readthedocs.io/
 H  -9.665629  2.802345 -4.258443
 C -10.192485  2.220318 -3.473734
 H -11.209473  1.938403 -3.821058
 H -10.301557  2.847376 -2.563120
 C  -9.522131  0.885606 -3.098305
 H  -9.359379  0.297881 -4.002516
 H -10.223086  0.311938 -2.482521
 C  -8.201485  1.049538 -2.348854
 H  -8.292624  1.771054 -1.534284
 H  -7.416515  1.418380 -3.018962
 C  -7.743890 -0.302716 -1.771760
 H  -7.641555 -1.044445 -2.585256
 H  -8.487017 -0.689610 -1.059822
 N  -6.475196 -0.203071 -1.060996
 H  -6.488728 -0.399566 -0.044373
 C  -5.332790  0.115251 -1.634167
 H  -5.359164  0.325921 -2.707716
 C  -4.108032  0.107080 -0.906354
 H  -4.160951 -0.147335  0.151697
 C  -2.847722  0.283815 -1.459290
 C  -2.665308  0.683561 -2.898784
 H  -2.187189  1.666115 -2.961803
 H  -3.615888  0.738279 -3.421733
 H  -2.030649 -0.037153 -3.418403
 C  -1.692464  0.033879 -0.627843
 H  -1.892134 -0.240348  0.409346
 C  -0.383497  0.075041 -1.041488
 H  -0.154957  0.350228 -2.074088
 C   0.703874 -0.222107 -0.150674
 H   0.421965 -0.515079  0.864636
 C   2.049636 -0.143876 -0.447273
 C   2.550891  0.284230 -1.801545
 H   3.101444 -0.521673 -2.290463
 H   3.231791  1.129391 -1.707763
 H   1.731498  0.572038 -2.459212
 C   2.973543 -0.465988  0.632987
 H   2.469919 -0.784682  1.546278
 C   4.336337 -0.384967  0.575083
 H   4.754129 -0.066936 -0.384105
 C   5.317700 -0.730934  1.612376
 C   6.654720 -0.737458  1.280481
 C   7.195422 -0.317516 -0.070250
 H   8.278511 -0.184650 -0.020466
 H   6.773547  0.612919 -0.437451
 H   7.002630 -1.080093 -0.823960
 C   7.734179 -1.194833  2.236334
 H   8.281756 -0.309850  2.610146
 H   8.475821 -1.781158  1.683276
 C   7.189471 -2.000668  3.412953
 H   7.972340 -2.154336  4.166005
 H   6.883042 -2.997326  3.064480
 C   6.006474 -1.253670  4.019643
 H   6.347351 -0.262607  4.348515
 H   5.634582 -1.769556  4.914355
 C   4.821296 -1.087452  3.015873
 C   3.916674  0.055476  3.577734
 H   3.696503 -0.129865  4.630065
 H   2.956534  0.131344  3.068596
 H   4.416791  1.024603  3.508016
 C   4.022817 -2.428540  2.965657
 H   3.650444 -2.684065  3.957010
 H   4.664128 -3.240614  2.629595
 H   3.168254 -2.383308  2.297090