63
Created by chemcoord http://chemcoord.readthedocs.io/
 H  -9.716420  2.648408 -4.255157
 C -10.229140  2.027694 -3.491002
 H -11.234083  1.722982 -3.853766
 H -10.363989  2.620504 -2.561110
 C  -9.516559  0.704670 -3.152797
 H  -9.331855  0.149868 -4.074564
 H -10.197364  0.091152 -2.557786
 C  -8.207976  0.887924 -2.385120
 H  -8.339543  1.583691 -1.550256
 H  -7.431468  1.307008 -3.031087
 C  -7.709270 -0.470380 -1.851207
 H  -7.571066 -1.183416 -2.681530
 H  -8.446259 -0.914972 -1.169022
 N  -6.456635 -0.352732 -1.118892
 H  -6.483871 -0.557853 -0.102771
 C  -5.310128 -0.000366 -1.672920
 H  -5.325776  0.233437 -2.742290
 C  -4.098725  0.008840 -0.936810
 H  -4.153022 -0.273660  0.112156
 C  -2.834106  0.228109 -1.477477
 C  -2.648173  0.675518 -2.899355
 H  -2.193582  1.670779 -2.927339
 H  -3.594788  0.723443 -3.430104
 H  -1.991212 -0.013316 -3.434271
 C  -1.689740 -0.018947 -0.644304
 H  -1.885669 -0.325318  0.385044
 C  -0.372906  0.071073 -1.045175
 H  -0.138126  0.374440 -2.065958
 C   0.705020 -0.214827 -0.152908
 H   0.417861 -0.544807  0.849120
 C   2.055194 -0.090246 -0.428534
 C   2.561284  0.388863 -1.763336
 H   3.141109 -0.387320 -2.266299
 H   3.216288  1.250148 -1.637341
 H   1.742534  0.671217 -2.424160
 C   2.972580 -0.422024  0.644654
 H   2.480235 -0.788221  1.544663
 C   4.336077 -0.310383  0.595824
 H   4.750689  0.056809 -0.347082
 C   5.315750 -0.661681  1.622909
 C   6.655596 -0.627179  1.300008
 C   7.186750 -0.156833 -0.039684
 H   8.265943  0.002974  0.015242
 H   6.740919  0.771699 -0.382593
 H   7.014617 -0.903819 -0.813733
 C   7.741389 -1.081211  2.250526
 H   8.262354 -0.195321  2.652852
 H   8.500172 -1.630887  1.685797
 C   7.211446 -1.935510  3.400107
 H   7.999605 -2.086891  4.147455
 H   6.936989 -2.930262  3.024010
 C   6.002282 -1.239806  4.018727
 H   6.310868 -0.248376  4.378585
 H   5.642805 -1.787949  4.896201
 C   4.821589 -1.076387  3.011063
 C   3.880538  0.016000  3.609317
 H   3.660560 -0.215525  4.652502
 H   2.921226  0.082184  3.097276
 H   4.351458  1.001657  3.579313
 C   4.068053 -2.439941  2.910873
 H   3.696883 -2.739517  3.890273
 H   4.738079 -3.219408  2.554254
 H   3.217461 -2.400769  2.236882