63
Created by chemcoord http://chemcoord.readthedocs.io/
 H  -9.405724  3.048607 -4.712149
 C  -9.988775  2.637448 -3.861796
 H -11.013576  2.362514 -4.191075
 H -10.067613  3.398378 -3.056153
 C  -9.411101  1.355410 -3.224632
 H  -9.250119  0.615661 -4.015476
 H -10.160853  0.952273 -2.537948
 C  -8.118437  1.581925 -2.443651
 H  -8.248307  2.375331 -1.699760
 H  -7.307150  1.893055 -3.110028
 C  -7.693450  0.272273 -1.755523
 H  -7.574999 -0.524508 -2.505938
 H  -8.453306 -0.060625 -1.029609
 N  -6.431860  0.404069 -1.041596
 H  -6.474063  0.429731 -0.000629
 C  -5.255047  0.470448 -1.634763
 H  -5.248260  0.448718 -2.727466
 C  -4.042776  0.527387 -0.889328
 H  -4.123756  0.513336  0.203957
 C  -2.772488  0.497091 -1.441698
 C  -2.543868  0.586574 -2.919400
 H  -3.473169  0.610029 -3.489989
 H  -1.947959 -0.258395 -3.281625
 H  -1.984163  1.496608 -3.152015
 C  -1.660461  0.326729 -0.543885
 H  -1.886937  0.308804  0.522235
 C  -0.357982  0.145388 -0.933367
 H  -0.113777  0.138667 -1.997275
 C   0.706108 -0.054000  0.007326
 H   0.432351 -0.047494  1.067456
 C   2.032640 -0.278979 -0.310391
 C   2.520888 -0.288420 -1.734561
 H   3.515232  0.146567 -1.800697
 H   1.855919  0.294506 -2.371404
 H   2.559996 -1.297324 -2.148094
 C   2.960464 -0.483550  0.790247
 H   2.530983 -0.381774  1.779346
 C   4.275944 -0.812621  0.646004
 H   4.635925 -0.888569 -0.381153
 C   5.278729 -1.091378  1.679385
 C   6.598827 -1.145435  1.315815
 C   7.079208 -0.933518 -0.112816
 H   7.073571 -1.868285 -0.678639
 H   8.100855 -0.551180 -0.113355
 H   6.474706 -0.215518 -0.669651
 C   7.714968 -1.429342  2.299055
 H   8.564468 -0.764590  2.079441
 H   8.073173 -2.451984  2.116497
 C   7.296471 -1.298163  3.767630
 H   7.233465 -0.240017  4.034872
 H   8.063920 -1.735281  4.414368
 C   5.954001 -1.981504  3.972283
 H   5.659458 -1.935424  5.025113
 H   6.049929 -3.043846  3.721744
 C   4.819004 -1.341305  3.116532
 C   4.403301  0.013099  3.768356
 H   5.264746  0.679794  3.859177
 H   4.005938 -0.152990  4.772355
 H   3.634280  0.536273  3.199621
 C   3.622398 -2.347954  3.161840
 H   3.373906 -2.577126  4.199755
 H   3.868926 -3.283297  2.665565
 H   2.716530 -1.979670  2.682831