63
Created by chemcoord http://chemcoord.readthedocs.io/
 H  -9.954766  1.046598 -4.745166
 C -10.430933  0.682064 -3.811099
 H -11.417927  0.229759 -4.047494
 H -10.617318  1.539738 -3.130073
 C  -9.650316 -0.412631 -3.070053
 H  -9.449350 -1.240880 -3.753149
 H -10.321491 -0.801727 -2.304027
 C  -8.367212  0.071724 -2.406169
 H  -8.568400  0.907311 -1.727948
 H  -7.635445  0.416221 -3.142053
 C  -7.721603 -1.092210 -1.605426
 H  -7.517532 -1.925547 -2.287696
 H  -8.410964 -1.474298 -0.849420
 N  -6.477886 -0.698666 -0.942890
 H  -6.530772 -0.469988  0.066616
 C  -5.315458 -0.594694 -1.565735
 H  -5.307311 -0.821178 -2.632112
 C  -4.107010 -0.305454 -0.842916
 H  -4.187882 -0.194799  0.238102
 C  -2.843859 -0.276385 -1.395745
 C  -2.608681 -0.331161 -2.878412
 H  -3.524587 -0.502630 -3.445366
 H  -1.898185 -1.123195 -3.139495
 H  -2.175193  0.613223 -3.218663
 C  -1.689001 -0.184887 -0.508925
 H  -1.916853 -0.125357  0.560161
 C  -0.398348 -0.180101 -0.917633
 H  -0.166155 -0.224961 -1.985575
 C   0.701854 -0.109396  0.010825
 H   0.432032  0.014269  1.060423
 C   2.029020 -0.140570 -0.315831
 C   2.514247 -0.335935 -1.738386
 H   3.407255  0.256483 -1.922463
 H   1.750602 -0.022949 -2.450034
 H   2.745588 -1.380356 -1.953079
 C   2.996614 -0.019087  0.779946
 H   2.595635  0.224684  1.759937
 C   4.329432 -0.211797  0.647271
 H   4.694624 -0.449854 -0.361148
 C   5.378507 -0.205999  1.681356
 C   6.684229 -0.155117  1.254974
 C   7.078879 -0.129936 -0.201492
 H   7.177724 -1.140257 -0.605792
 H   8.040077  0.371540 -0.322174
 H   6.365405  0.402089 -0.833088
 C   7.870060 -0.178820  2.193885
 H   8.625403  0.557600  1.833828
 H   8.324196 -1.162352  2.105875
 C   7.491615  0.108781  3.653092
 H   7.277052  1.186358  3.738254
 H   8.342880 -0.128064  4.294748
 C   6.248460 -0.679009  4.022655
 H   6.005406 -0.516056  5.077930
 H   6.459229 -1.749177  3.916851
 C   5.008356 -0.290186  3.157090
 C   4.437362  1.092494  3.643275
 H   5.207764  1.866691  3.599473
 H   4.097658  1.021751  4.679176
 H   3.589034  1.431116  3.048095
 C   3.932418 -1.384669  3.402685
 H   3.752737 -1.489626  4.474241
 H   4.253510 -2.351835  3.023971
 H   2.973988 -1.176379  2.929709